simulator lang=spectre
include "ami12N.scs"
include "ami12P.scs"
